&param1
! Evolution
Pmutation = 0.05d0, 
STDmutation = 0.005d0, 
! Tree
TwigLength = 1.0d0, 
TwigDiameter = 0.1d0,
SizeLeaf = 1.0d0,
LeafSurface = 0.25d0, 
Cauchy = 0.00002d0,
VolumeRatioLeaf = 8.0d0,
MaintenanceH = 0.02d0,
Nmax = 10000, 
! Forest
Ngeneration = 3000,
SizeForest = 100.0d0,
Ntrees_ini = 10000, 
Ntrees_max = 100000,
! Saving
save_file = 'ZZZ', 
save_rate = 1000,
! Initialization
tree_init = 'BestShort', 
F2min = 0.0d0,
F2max = 100000.0d0,
FromForest = .true. /
         